[root]
type=Root
children=system
eventq_index=0
full_system=false
sim_quantum=0
time_sync_enable=false
time_sync_period=100000000000
time_sync_spin_threshold=100000000

[system]
type=System
children=clk_domain cpu0 cpu1 cpu2 cpu3 cpu_clk_domain cpu_voltage_domain dvfs_handler mem_ctrls redirect_paths0 redirect_paths1 redirect_paths2 ruby sys_port_proxy voltage_domain workload
byte_order=little
cache_line_size=64
eventq_index=0
exit_on_work_items=false
init_param=0
kvm_vm=Null
m5ops_base=4294901760
mem_mode=timing
mem_ranges=0:536870912
memories=system.mem_ctrls.dram
mmap_using_noreserve=false
multi_thread=false
num_work_ids=16
readfile=
redirect_paths=system.redirect_paths0 system.redirect_paths1 system.redirect_paths2
shared_backstore=
symbolfile=
thermal_components=
thermal_model=Null
work_begin_ckpt_count=0
work_begin_cpu_id_exit=-1
work_begin_exit_count=0
work_cpus_ckpt_count=0
work_end_ckpt_count=0
work_end_exit_count=0
work_item_id=-1
workload=system.workload
system_port=system.sys_port_proxy.in_ports[0]

[system.clk_domain]
type=SrcClockDomain
clock=1000
domain_id=-1
eventq_index=0
init_perf_level=0
voltage_domain=system.voltage_domain

[system.cpu0]
type=TimingSimpleCPU
children=interrupts isa mmu power_state tracer workload
branchPred=Null
checker=Null
clk_domain=system.cpu_clk_domain
cpu_id=0
do_checkpoint_insts=true
do_statistics_insts=true
eventq_index=0
function_trace=false
function_trace_start=0
interrupts=system.cpu0.interrupts
isa=system.cpu0.isa
max_insts_all_threads=0
max_insts_any_thread=0
mmu=system.cpu0.mmu
numThreads=1
power_gating_on_idle=false
power_model=
power_state=system.cpu0.power_state
progress_interval=0
pwr_gating_latency=300
simpoint_start_insts=
socket_id=0
switched_out=false
syscallRetryLatency=10000
system=system
tracer=system.cpu0.tracer
wait_for_remote_gdb=false
workload=system.cpu0.workload
dcache_port=system.ruby.l1_cntrl0.sequencer.in_ports[1]
icache_port=system.ruby.l1_cntrl0.sequencer.in_ports[0]

[system.cpu0.interrupts]
type=X86LocalApic
children=clk_domain
clk_domain=system.cpu0.interrupts.clk_domain
eventq_index=0
int_latency=1000
pio_latency=100000
system=system
int_requestor=system.ruby.l1_cntrl0.sequencer.in_ports[4]
int_responder=system.ruby.l1_cntrl0.sequencer.interrupt_out_port[1]
pio=system.ruby.l1_cntrl0.sequencer.interrupt_out_port[0]

[system.cpu0.interrupts.clk_domain]
type=DerivedClockDomain
clk_divider=16
clk_domain=system.cpu_clk_domain
eventq_index=0

[system.cpu0.isa]
type=X86ISA
eventq_index=0
vendor_string=M5 Simulator

[system.cpu0.mmu]
type=X86MMU
children=dtb itb
dtb=system.cpu0.mmu.dtb
eventq_index=0
itb=system.cpu0.mmu.itb

[system.cpu0.mmu.dtb]
type=X86TLB
children=walker
eventq_index=0
size=64
system=system
walker=system.cpu0.mmu.dtb.walker

[system.cpu0.mmu.dtb.walker]
type=X86PagetableWalker
children=power_state
clk_domain=system.cpu_clk_domain
eventq_index=0
num_squash_per_cycle=4
power_model=
power_state=system.cpu0.mmu.dtb.walker.power_state
system=system
port=system.ruby.l1_cntrl0.sequencer.in_ports[3]

[system.cpu0.mmu.dtb.walker.power_state]
type=PowerState
clk_gate_bins=20
clk_gate_max=1000000000000
clk_gate_min=1000
default_state=UNDEFINED
eventq_index=0
leaders=
possible_states=

[system.cpu0.mmu.itb]
type=X86TLB
children=walker
eventq_index=0
size=64
system=system
walker=system.cpu0.mmu.itb.walker

[system.cpu0.mmu.itb.walker]
type=X86PagetableWalker
children=power_state
clk_domain=system.cpu_clk_domain
eventq_index=0
num_squash_per_cycle=4
power_model=
power_state=system.cpu0.mmu.itb.walker.power_state
system=system
port=system.ruby.l1_cntrl0.sequencer.in_ports[2]

[system.cpu0.mmu.itb.walker.power_state]
type=PowerState
clk_gate_bins=20
clk_gate_max=1000000000000
clk_gate_min=1000
default_state=UNDEFINED
eventq_index=0
leaders=
possible_states=

[system.cpu0.power_state]
type=PowerState
clk_gate_bins=20
clk_gate_max=1000000000000
clk_gate_min=1000
default_state=UNDEFINED
eventq_index=0
leaders=
possible_states=ON CLK_GATED OFF

[system.cpu0.tracer]
type=ExeTracer
eventq_index=0

[system.cpu0.workload]
type=Process
cmd=/home/min/a/rolivie/ECE666/Homework1/bin/homework1
cwd=/home/min/a/rolivie/gem5
drivers=
egid=100
env=
errout=cerr
euid=100
eventq_index=0
executable=/home/min/a/rolivie/ECE666/Homework1/bin/homework1
gid=100
input=cin
kvmInSE=false
maxStackSize=67108864
output=cout
pgid=100
pid=100
ppid=0
release=5.1.0
simpoint=0
system=system
uid=100
useArchPT=false

[system.cpu1]
type=TimingSimpleCPU
children=interrupts isa mmu power_state tracer
branchPred=Null
checker=Null
clk_domain=system.cpu_clk_domain
cpu_id=1
do_checkpoint_insts=true
do_statistics_insts=true
eventq_index=0
function_trace=false
function_trace_start=0
interrupts=system.cpu1.interrupts
isa=system.cpu1.isa
max_insts_all_threads=0
max_insts_any_thread=0
mmu=system.cpu1.mmu
numThreads=1
power_gating_on_idle=false
power_model=
power_state=system.cpu1.power_state
progress_interval=0
pwr_gating_latency=300
simpoint_start_insts=
socket_id=0
switched_out=false
syscallRetryLatency=10000
system=system
tracer=system.cpu1.tracer
wait_for_remote_gdb=false
workload=system.cpu0.workload
dcache_port=system.ruby.l1_cntrl1.sequencer.in_ports[1]
icache_port=system.ruby.l1_cntrl1.sequencer.in_ports[0]

[system.cpu1.interrupts]
type=X86LocalApic
children=clk_domain
clk_domain=system.cpu1.interrupts.clk_domain
eventq_index=0
int_latency=1000
pio_latency=100000
system=system
int_requestor=system.ruby.l1_cntrl1.sequencer.in_ports[4]
int_responder=system.ruby.l1_cntrl1.sequencer.interrupt_out_port[1]
pio=system.ruby.l1_cntrl1.sequencer.interrupt_out_port[0]

[system.cpu1.interrupts.clk_domain]
type=DerivedClockDomain
clk_divider=16
clk_domain=system.cpu_clk_domain
eventq_index=0

[system.cpu1.isa]
type=X86ISA
eventq_index=0
vendor_string=M5 Simulator

[system.cpu1.mmu]
type=X86MMU
children=dtb itb
dtb=system.cpu1.mmu.dtb
eventq_index=0
itb=system.cpu1.mmu.itb

[system.cpu1.mmu.dtb]
type=X86TLB
children=walker
eventq_index=0
size=64
system=system
walker=system.cpu1.mmu.dtb.walker

[system.cpu1.mmu.dtb.walker]
type=X86PagetableWalker
children=power_state
clk_domain=system.cpu_clk_domain
eventq_index=0
num_squash_per_cycle=4
power_model=
power_state=system.cpu1.mmu.dtb.walker.power_state
system=system
port=system.ruby.l1_cntrl1.sequencer.in_ports[3]

[system.cpu1.mmu.dtb.walker.power_state]
type=PowerState
clk_gate_bins=20
clk_gate_max=1000000000000
clk_gate_min=1000
default_state=UNDEFINED
eventq_index=0
leaders=
possible_states=

[system.cpu1.mmu.itb]
type=X86TLB
children=walker
eventq_index=0
size=64
system=system
walker=system.cpu1.mmu.itb.walker

[system.cpu1.mmu.itb.walker]
type=X86PagetableWalker
children=power_state
clk_domain=system.cpu_clk_domain
eventq_index=0
num_squash_per_cycle=4
power_model=
power_state=system.cpu1.mmu.itb.walker.power_state
system=system
port=system.ruby.l1_cntrl1.sequencer.in_ports[2]

[system.cpu1.mmu.itb.walker.power_state]
type=PowerState
clk_gate_bins=20
clk_gate_max=1000000000000
clk_gate_min=1000
default_state=UNDEFINED
eventq_index=0
leaders=
possible_states=

[system.cpu1.power_state]
type=PowerState
clk_gate_bins=20
clk_gate_max=1000000000000
clk_gate_min=1000
default_state=UNDEFINED
eventq_index=0
leaders=
possible_states=ON CLK_GATED OFF

[system.cpu1.tracer]
type=ExeTracer
eventq_index=0

[system.cpu2]
type=TimingSimpleCPU
children=interrupts isa mmu power_state tracer
branchPred=Null
checker=Null
clk_domain=system.cpu_clk_domain
cpu_id=2
do_checkpoint_insts=true
do_statistics_insts=true
eventq_index=0
function_trace=false
function_trace_start=0
interrupts=system.cpu2.interrupts
isa=system.cpu2.isa
max_insts_all_threads=0
max_insts_any_thread=0
mmu=system.cpu2.mmu
numThreads=1
power_gating_on_idle=false
power_model=
power_state=system.cpu2.power_state
progress_interval=0
pwr_gating_latency=300
simpoint_start_insts=
socket_id=0
switched_out=false
syscallRetryLatency=10000
system=system
tracer=system.cpu2.tracer
wait_for_remote_gdb=false
workload=system.cpu0.workload
dcache_port=system.ruby.l1_cntrl2.sequencer.in_ports[1]
icache_port=system.ruby.l1_cntrl2.sequencer.in_ports[0]

[system.cpu2.interrupts]
type=X86LocalApic
children=clk_domain
clk_domain=system.cpu2.interrupts.clk_domain
eventq_index=0
int_latency=1000
pio_latency=100000
system=system
int_requestor=system.ruby.l1_cntrl2.sequencer.in_ports[4]
int_responder=system.ruby.l1_cntrl2.sequencer.interrupt_out_port[1]
pio=system.ruby.l1_cntrl2.sequencer.interrupt_out_port[0]

[system.cpu2.interrupts.clk_domain]
type=DerivedClockDomain
clk_divider=16
clk_domain=system.cpu_clk_domain
eventq_index=0

[system.cpu2.isa]
type=X86ISA
eventq_index=0
vendor_string=M5 Simulator

[system.cpu2.mmu]
type=X86MMU
children=dtb itb
dtb=system.cpu2.mmu.dtb
eventq_index=0
itb=system.cpu2.mmu.itb

[system.cpu2.mmu.dtb]
type=X86TLB
children=walker
eventq_index=0
size=64
system=system
walker=system.cpu2.mmu.dtb.walker

[system.cpu2.mmu.dtb.walker]
type=X86PagetableWalker
children=power_state
clk_domain=system.cpu_clk_domain
eventq_index=0
num_squash_per_cycle=4
power_model=
power_state=system.cpu2.mmu.dtb.walker.power_state
system=system
port=system.ruby.l1_cntrl2.sequencer.in_ports[3]

[system.cpu2.mmu.dtb.walker.power_state]
type=PowerState
clk_gate_bins=20
clk_gate_max=1000000000000
clk_gate_min=1000
default_state=UNDEFINED
eventq_index=0
leaders=
possible_states=

[system.cpu2.mmu.itb]
type=X86TLB
children=walker
eventq_index=0
size=64
system=system
walker=system.cpu2.mmu.itb.walker

[system.cpu2.mmu.itb.walker]
type=X86PagetableWalker
children=power_state
clk_domain=system.cpu_clk_domain
eventq_index=0
num_squash_per_cycle=4
power_model=
power_state=system.cpu2.mmu.itb.walker.power_state
system=system
port=system.ruby.l1_cntrl2.sequencer.in_ports[2]

[system.cpu2.mmu.itb.walker.power_state]
type=PowerState
clk_gate_bins=20
clk_gate_max=1000000000000
clk_gate_min=1000
default_state=UNDEFINED
eventq_index=0
leaders=
possible_states=

[system.cpu2.power_state]
type=PowerState
clk_gate_bins=20
clk_gate_max=1000000000000
clk_gate_min=1000
default_state=UNDEFINED
eventq_index=0
leaders=
possible_states=ON CLK_GATED OFF

[system.cpu2.tracer]
type=ExeTracer
eventq_index=0

[system.cpu3]
type=TimingSimpleCPU
children=interrupts isa mmu power_state tracer
branchPred=Null
checker=Null
clk_domain=system.cpu_clk_domain
cpu_id=3
do_checkpoint_insts=true
do_statistics_insts=true
eventq_index=0
function_trace=false
function_trace_start=0
interrupts=system.cpu3.interrupts
isa=system.cpu3.isa
max_insts_all_threads=0
max_insts_any_thread=0
mmu=system.cpu3.mmu
numThreads=1
power_gating_on_idle=false
power_model=
power_state=system.cpu3.power_state
progress_interval=0
pwr_gating_latency=300
simpoint_start_insts=
socket_id=0
switched_out=false
syscallRetryLatency=10000
system=system
tracer=system.cpu3.tracer
wait_for_remote_gdb=false
workload=system.cpu0.workload
dcache_port=system.ruby.l1_cntrl3.sequencer.in_ports[1]
icache_port=system.ruby.l1_cntrl3.sequencer.in_ports[0]

[system.cpu3.interrupts]
type=X86LocalApic
children=clk_domain
clk_domain=system.cpu3.interrupts.clk_domain
eventq_index=0
int_latency=1000
pio_latency=100000
system=system
int_requestor=system.ruby.l1_cntrl3.sequencer.in_ports[4]
int_responder=system.ruby.l1_cntrl3.sequencer.interrupt_out_port[1]
pio=system.ruby.l1_cntrl3.sequencer.interrupt_out_port[0]

[system.cpu3.interrupts.clk_domain]
type=DerivedClockDomain
clk_divider=16
clk_domain=system.cpu_clk_domain
eventq_index=0

[system.cpu3.isa]
type=X86ISA
eventq_index=0
vendor_string=M5 Simulator

[system.cpu3.mmu]
type=X86MMU
children=dtb itb
dtb=system.cpu3.mmu.dtb
eventq_index=0
itb=system.cpu3.mmu.itb

[system.cpu3.mmu.dtb]
type=X86TLB
children=walker
eventq_index=0
size=64
system=system
walker=system.cpu3.mmu.dtb.walker

[system.cpu3.mmu.dtb.walker]
type=X86PagetableWalker
children=power_state
clk_domain=system.cpu_clk_domain
eventq_index=0
num_squash_per_cycle=4
power_model=
power_state=system.cpu3.mmu.dtb.walker.power_state
system=system
port=system.ruby.l1_cntrl3.sequencer.in_ports[3]

[system.cpu3.mmu.dtb.walker.power_state]
type=PowerState
clk_gate_bins=20
clk_gate_max=1000000000000
clk_gate_min=1000
default_state=UNDEFINED
eventq_index=0
leaders=
possible_states=

[system.cpu3.mmu.itb]
type=X86TLB
children=walker
eventq_index=0
size=64
system=system
walker=system.cpu3.mmu.itb.walker

[system.cpu3.mmu.itb.walker]
type=X86PagetableWalker
children=power_state
clk_domain=system.cpu_clk_domain
eventq_index=0
num_squash_per_cycle=4
power_model=
power_state=system.cpu3.mmu.itb.walker.power_state
system=system
port=system.ruby.l1_cntrl3.sequencer.in_ports[2]

[system.cpu3.mmu.itb.walker.power_state]
type=PowerState
clk_gate_bins=20
clk_gate_max=1000000000000
clk_gate_min=1000
default_state=UNDEFINED
eventq_index=0
leaders=
possible_states=

[system.cpu3.power_state]
type=PowerState
clk_gate_bins=20
clk_gate_max=1000000000000
clk_gate_min=1000
default_state=UNDEFINED
eventq_index=0
leaders=
possible_states=ON CLK_GATED OFF

[system.cpu3.tracer]
type=ExeTracer
eventq_index=0

[system.cpu_clk_domain]
type=SrcClockDomain
clock=500
domain_id=-1
eventq_index=0
init_perf_level=0
voltage_domain=system.cpu_voltage_domain

[system.cpu_voltage_domain]
type=VoltageDomain
eventq_index=0
voltage=1.0

[system.dvfs_handler]
type=DVFSHandler
domains=
enable=false
eventq_index=0
sys_clk_domain=system.clk_domain
transition_latency=100000000

[system.mem_ctrls]
type=MemCtrl
children=dram power_state
clk_domain=system.clk_domain
command_window=10000
dram=system.mem_ctrls.dram
eventq_index=0
mem_sched_policy=frfcfs
min_writes_per_switch=16
nvm=Null
power_model=
power_state=system.mem_ctrls.power_state
qos_policy=Null
qos_priorities=1
qos_priority_escalation=false
qos_q_policy=fifo
qos_requestors=               
qos_syncro_scheduler=false
qos_turnaround_policy=Null
static_backend_latency=10000
static_frontend_latency=10000
system=system
write_high_thresh_perc=85
write_low_thresh_perc=50
port=system.ruby.dir_cntrl0.memory_out_port

[system.mem_ctrls.dram]
type=DRAMInterface
children=power_state
IDD0=0.055
IDD02=0.0
IDD2N=0.032
IDD2N2=0.0
IDD2P0=0.0
IDD2P02=0.0
IDD2P1=0.032
IDD2P12=0.0
IDD3N=0.038
IDD3N2=0.0
IDD3P0=0.0
IDD3P02=0.0
IDD3P1=0.038
IDD3P12=0.0
IDD4R=0.157
IDD4R2=0.0
IDD4W=0.125
IDD4W2=0.0
IDD5=0.23500000000000001
IDD52=0.0
IDD6=0.02
IDD62=0.0
VDD=1.5
VDD2=0.0
activation_limit=4
addr_mapping=RoRaBaCoCh
bank_groups_per_rank=0
banks_per_rank=8
beats_per_clock=2
burst_length=8
clk_domain=system.clk_domain
conf_table_reported=true
data_clock_sync=false
device_bus_width=8
device_rowbuffer_size=1024
device_size=536870912
devices_per_rank=8
dll=true
enable_dram_powerdown=false
eventq_index=0
image_file=
in_addr_map=true
kvm_map=true
max_accesses_per_row=16
null=false
page_policy=open_adaptive
power_model=
power_state=system.mem_ctrls.dram.power_state
range=0:536870912
ranks_per_channel=2
read_buffer_size=32
tAAD=1250
tBURST=5000
tBURST_MAX=5000
tBURST_MIN=5000
tCCD_L=0
tCCD_L_WR=0
tCK=1250
tCL=13750
tCS=2500
tPPD=0
tRAS=35000
tRCD=13750
tREFI=7800000
tRFC=260000
tRP=13750
tRRD=6000
tRRD_L=0
tRTP=7500
tRTW=2500
tWR=15000
tWTR=7500
tWTR_L=7500
tXAW=30000
tXP=6000
tXPDLL=0
tXS=270000
tXSDLL=0
two_cycle_activate=false
write_buffer_size=64

[system.mem_ctrls.dram.power_state]
type=PowerState
clk_gate_bins=20
clk_gate_max=1000000000000
clk_gate_min=1000
default_state=UNDEFINED
eventq_index=0
leaders=
possible_states=

[system.mem_ctrls.power_state]
type=PowerState
clk_gate_bins=20
clk_gate_max=1000000000000
clk_gate_min=1000
default_state=UNDEFINED
eventq_index=0
leaders=
possible_states=

[system.redirect_paths0]
type=RedirectPath
app_path=/proc
eventq_index=0
host_paths=/home/min/a/rolivie/ECE666/Homework3/hw1_ruby_out//fs/proc

[system.redirect_paths1]
type=RedirectPath
app_path=/sys
eventq_index=0
host_paths=/home/min/a/rolivie/ECE666/Homework3/hw1_ruby_out//fs/sys

[system.redirect_paths2]
type=RedirectPath
app_path=/tmp
eventq_index=0
host_paths=/home/min/a/rolivie/ECE666/Homework3/hw1_ruby_out//fs/tmp

[system.ruby]
type=RubySystem
children=clk_domain dir_cntrl0 l1_cntrl0 l1_cntrl1 l1_cntrl2 l1_cntrl3 memctrl_clk_domain network power_state
access_backing_store=false
all_instructions=false
block_size_bytes=64
clk_domain=system.ruby.clk_domain
eventq_index=0
hot_lines=false
memory_size_bits=48
num_of_sequencers=4
number_of_virtual_networks=5
phys_mem=Null
power_model=
power_state=system.ruby.power_state
randomization=false
system=system

[system.ruby.clk_domain]
type=SrcClockDomain
clock=500
domain_id=-1
eventq_index=0
init_perf_level=0
voltage_domain=system.voltage_domain

[system.ruby.dir_cntrl0]
type=Directory_Controller
children=directory dmaRequestToDir dmaResponseFromDir forwardFromDir power_state requestToDir requestToMemory responseFromDir responseFromMemory
addr_ranges=0:536870912
buffer_size=0
clk_domain=system.ruby.clk_domain
cluster_id=0
directory=system.ruby.dir_cntrl0.directory
directory_latency=12
dmaRequestToDir=system.ruby.dir_cntrl0.dmaRequestToDir
dmaResponseFromDir=system.ruby.dir_cntrl0.dmaResponseFromDir
downstream_destinations=
eventq_index=0
forwardFromDir=system.ruby.dir_cntrl0.forwardFromDir
mandatory_queue_latency=1
number_of_TBEs=256
power_model=
power_state=system.ruby.dir_cntrl0.power_state
recycle_latency=10
requestToDir=system.ruby.dir_cntrl0.requestToDir
requestToMemory=system.ruby.dir_cntrl0.requestToMemory
responseFromDir=system.ruby.dir_cntrl0.responseFromDir
responseFromMemory=system.ruby.dir_cntrl0.responseFromMemory
ruby_system=system.ruby
system=system
to_memory_controller_latency=1
transitions_per_cycle=32
version=0
memory_out_port=system.mem_ctrls.port

[system.ruby.dir_cntrl0.directory]
type=RubyDirectoryMemory
addr_ranges=0:536870912
eventq_index=0

[system.ruby.dir_cntrl0.dmaRequestToDir]
type=MessageBuffer
allow_zero_latency=false
buffer_size=0
eventq_index=0
ordered=true
randomization=ruby_system
in_port=system.ruby.network.out_port[9]

[system.ruby.dir_cntrl0.dmaResponseFromDir]
type=MessageBuffer
allow_zero_latency=false
buffer_size=0
eventq_index=0
ordered=true
randomization=ruby_system
out_port=system.ruby.network.in_port[9]

[system.ruby.dir_cntrl0.forwardFromDir]
type=MessageBuffer
allow_zero_latency=false
buffer_size=0
eventq_index=0
ordered=false
randomization=ruby_system
out_port=system.ruby.network.in_port[10]

[system.ruby.dir_cntrl0.power_state]
type=PowerState
clk_gate_bins=20
clk_gate_max=1000000000000
clk_gate_min=1000
default_state=UNDEFINED
eventq_index=0
leaders=
possible_states=

[system.ruby.dir_cntrl0.requestToDir]
type=MessageBuffer
allow_zero_latency=false
buffer_size=0
eventq_index=0
ordered=true
randomization=ruby_system
in_port=system.ruby.network.out_port[8]

[system.ruby.dir_cntrl0.requestToMemory]
type=MessageBuffer
allow_zero_latency=false
buffer_size=0
eventq_index=0
ordered=false
randomization=ruby_system

[system.ruby.dir_cntrl0.responseFromDir]
type=MessageBuffer
allow_zero_latency=false
buffer_size=0
eventq_index=0
ordered=false
randomization=ruby_system
out_port=system.ruby.network.in_port[8]

[system.ruby.dir_cntrl0.responseFromMemory]
type=MessageBuffer
allow_zero_latency=false
buffer_size=0
eventq_index=0
ordered=false
randomization=ruby_system

[system.ruby.l1_cntrl0]
type=L1Cache_Controller
children=cacheMemory forwardToCache mandatoryQueue power_state requestFromCache responseFromCache responseToCache sequencer
addr_ranges=0:18446744073709551615
buffer_size=0
cacheMemory=system.ruby.l1_cntrl0.cacheMemory
cache_response_latency=12
clk_domain=system.cpu_clk_domain
cluster_id=0
downstream_destinations=
eventq_index=0
forwardToCache=system.ruby.l1_cntrl0.forwardToCache
issue_latency=2
mandatoryQueue=system.ruby.l1_cntrl0.mandatoryQueue
mandatory_queue_latency=1
number_of_TBEs=256
power_model=
power_state=system.ruby.l1_cntrl0.power_state
recycle_latency=10
requestFromCache=system.ruby.l1_cntrl0.requestFromCache
responseFromCache=system.ruby.l1_cntrl0.responseFromCache
responseToCache=system.ruby.l1_cntrl0.responseToCache
ruby_system=system.ruby
send_evictions=true
sequencer=system.ruby.l1_cntrl0.sequencer
system=system
transitions_per_cycle=4
version=0

[system.ruby.l1_cntrl0.cacheMemory]
type=RubyCache
children=replacement_policy
assoc=2
block_size=0
dataAccessLatency=1
dataArrayBanks=1
eventq_index=0
is_icache=false
replacement_policy=system.ruby.l1_cntrl0.cacheMemory.replacement_policy
resourceStalls=false
ruby_system=system.ruby
size=65536
start_index_bit=6
tagAccessLatency=1
tagArrayBanks=1

[system.ruby.l1_cntrl0.cacheMemory.replacement_policy]
type=TreePLRURP
eventq_index=0
num_leaves=2

[system.ruby.l1_cntrl0.forwardToCache]
type=MessageBuffer
allow_zero_latency=false
buffer_size=0
eventq_index=0
ordered=true
randomization=ruby_system
in_port=system.ruby.network.out_port[0]

[system.ruby.l1_cntrl0.mandatoryQueue]
type=MessageBuffer
allow_zero_latency=false
buffer_size=0
eventq_index=0
ordered=false
randomization=ruby_system

[system.ruby.l1_cntrl0.power_state]
type=PowerState
clk_gate_bins=20
clk_gate_max=1000000000000
clk_gate_min=1000
default_state=UNDEFINED
eventq_index=0
leaders=
possible_states=

[system.ruby.l1_cntrl0.requestFromCache]
type=MessageBuffer
allow_zero_latency=false
buffer_size=0
eventq_index=0
ordered=true
randomization=ruby_system
out_port=system.ruby.network.in_port[0]

[system.ruby.l1_cntrl0.responseFromCache]
type=MessageBuffer
allow_zero_latency=false
buffer_size=0
eventq_index=0
ordered=true
randomization=ruby_system
out_port=system.ruby.network.in_port[1]

[system.ruby.l1_cntrl0.responseToCache]
type=MessageBuffer
allow_zero_latency=false
buffer_size=0
eventq_index=0
ordered=true
randomization=ruby_system
in_port=system.ruby.network.out_port[1]

[system.ruby.l1_cntrl0.sequencer]
type=RubySequencer
children=power_state
clk_domain=system.cpu_clk_domain
coreid=99
dcache=system.ruby.l1_cntrl0.cacheMemory
deadlock_threshold=500000
eventq_index=0
garnet_standalone=false
is_cpu_sequencer=true
max_outstanding_requests=16
no_retry_on_stall=false
power_model=
power_state=system.ruby.l1_cntrl0.sequencer.power_state
ruby_system=system.ruby
support_data_reqs=true
support_inst_reqs=true
system=system
using_ruby_tester=false
version=0
in_ports=system.cpu0.icache_port system.cpu0.dcache_port system.cpu0.mmu.itb.walker.port system.cpu0.mmu.dtb.walker.port system.cpu0.interrupts.int_requestor
interrupt_out_port=system.cpu0.interrupts.pio system.cpu0.interrupts.int_responder

[system.ruby.l1_cntrl0.sequencer.power_state]
type=PowerState
clk_gate_bins=20
clk_gate_max=1000000000000
clk_gate_min=1000
default_state=UNDEFINED
eventq_index=0
leaders=
possible_states=

[system.ruby.l1_cntrl1]
type=L1Cache_Controller
children=cacheMemory forwardToCache mandatoryQueue power_state requestFromCache responseFromCache responseToCache sequencer
addr_ranges=0:18446744073709551615
buffer_size=0
cacheMemory=system.ruby.l1_cntrl1.cacheMemory
cache_response_latency=12
clk_domain=system.cpu_clk_domain
cluster_id=0
downstream_destinations=
eventq_index=0
forwardToCache=system.ruby.l1_cntrl1.forwardToCache
issue_latency=2
mandatoryQueue=system.ruby.l1_cntrl1.mandatoryQueue
mandatory_queue_latency=1
number_of_TBEs=256
power_model=
power_state=system.ruby.l1_cntrl1.power_state
recycle_latency=10
requestFromCache=system.ruby.l1_cntrl1.requestFromCache
responseFromCache=system.ruby.l1_cntrl1.responseFromCache
responseToCache=system.ruby.l1_cntrl1.responseToCache
ruby_system=system.ruby
send_evictions=true
sequencer=system.ruby.l1_cntrl1.sequencer
system=system
transitions_per_cycle=4
version=1

[system.ruby.l1_cntrl1.cacheMemory]
type=RubyCache
children=replacement_policy
assoc=2
block_size=0
dataAccessLatency=1
dataArrayBanks=1
eventq_index=0
is_icache=false
replacement_policy=system.ruby.l1_cntrl1.cacheMemory.replacement_policy
resourceStalls=false
ruby_system=system.ruby
size=65536
start_index_bit=6
tagAccessLatency=1
tagArrayBanks=1

[system.ruby.l1_cntrl1.cacheMemory.replacement_policy]
type=TreePLRURP
eventq_index=0
num_leaves=2

[system.ruby.l1_cntrl1.forwardToCache]
type=MessageBuffer
allow_zero_latency=false
buffer_size=0
eventq_index=0
ordered=true
randomization=ruby_system
in_port=system.ruby.network.out_port[2]

[system.ruby.l1_cntrl1.mandatoryQueue]
type=MessageBuffer
allow_zero_latency=false
buffer_size=0
eventq_index=0
ordered=false
randomization=ruby_system

[system.ruby.l1_cntrl1.power_state]
type=PowerState
clk_gate_bins=20
clk_gate_max=1000000000000
clk_gate_min=1000
default_state=UNDEFINED
eventq_index=0
leaders=
possible_states=

[system.ruby.l1_cntrl1.requestFromCache]
type=MessageBuffer
allow_zero_latency=false
buffer_size=0
eventq_index=0
ordered=true
randomization=ruby_system
out_port=system.ruby.network.in_port[2]

[system.ruby.l1_cntrl1.responseFromCache]
type=MessageBuffer
allow_zero_latency=false
buffer_size=0
eventq_index=0
ordered=true
randomization=ruby_system
out_port=system.ruby.network.in_port[3]

[system.ruby.l1_cntrl1.responseToCache]
type=MessageBuffer
allow_zero_latency=false
buffer_size=0
eventq_index=0
ordered=true
randomization=ruby_system
in_port=system.ruby.network.out_port[3]

[system.ruby.l1_cntrl1.sequencer]
type=RubySequencer
children=power_state
clk_domain=system.cpu_clk_domain
coreid=99
dcache=system.ruby.l1_cntrl1.cacheMemory
deadlock_threshold=500000
eventq_index=0
garnet_standalone=false
is_cpu_sequencer=true
max_outstanding_requests=16
no_retry_on_stall=false
power_model=
power_state=system.ruby.l1_cntrl1.sequencer.power_state
ruby_system=system.ruby
support_data_reqs=true
support_inst_reqs=true
system=system
using_ruby_tester=false
version=1
in_ports=system.cpu1.icache_port system.cpu1.dcache_port system.cpu1.mmu.itb.walker.port system.cpu1.mmu.dtb.walker.port system.cpu1.interrupts.int_requestor
interrupt_out_port=system.cpu1.interrupts.pio system.cpu1.interrupts.int_responder

[system.ruby.l1_cntrl1.sequencer.power_state]
type=PowerState
clk_gate_bins=20
clk_gate_max=1000000000000
clk_gate_min=1000
default_state=UNDEFINED
eventq_index=0
leaders=
possible_states=

[system.ruby.l1_cntrl2]
type=L1Cache_Controller
children=cacheMemory forwardToCache mandatoryQueue power_state requestFromCache responseFromCache responseToCache sequencer
addr_ranges=0:18446744073709551615
buffer_size=0
cacheMemory=system.ruby.l1_cntrl2.cacheMemory
cache_response_latency=12
clk_domain=system.cpu_clk_domain
cluster_id=0
downstream_destinations=
eventq_index=0
forwardToCache=system.ruby.l1_cntrl2.forwardToCache
issue_latency=2
mandatoryQueue=system.ruby.l1_cntrl2.mandatoryQueue
mandatory_queue_latency=1
number_of_TBEs=256
power_model=
power_state=system.ruby.l1_cntrl2.power_state
recycle_latency=10
requestFromCache=system.ruby.l1_cntrl2.requestFromCache
responseFromCache=system.ruby.l1_cntrl2.responseFromCache
responseToCache=system.ruby.l1_cntrl2.responseToCache
ruby_system=system.ruby
send_evictions=true
sequencer=system.ruby.l1_cntrl2.sequencer
system=system
transitions_per_cycle=4
version=2

[system.ruby.l1_cntrl2.cacheMemory]
type=RubyCache
children=replacement_policy
assoc=2
block_size=0
dataAccessLatency=1
dataArrayBanks=1
eventq_index=0
is_icache=false
replacement_policy=system.ruby.l1_cntrl2.cacheMemory.replacement_policy
resourceStalls=false
ruby_system=system.ruby
size=65536
start_index_bit=6
tagAccessLatency=1
tagArrayBanks=1

[system.ruby.l1_cntrl2.cacheMemory.replacement_policy]
type=TreePLRURP
eventq_index=0
num_leaves=2

[system.ruby.l1_cntrl2.forwardToCache]
type=MessageBuffer
allow_zero_latency=false
buffer_size=0
eventq_index=0
ordered=true
randomization=ruby_system
in_port=system.ruby.network.out_port[4]

[system.ruby.l1_cntrl2.mandatoryQueue]
type=MessageBuffer
allow_zero_latency=false
buffer_size=0
eventq_index=0
ordered=false
randomization=ruby_system

[system.ruby.l1_cntrl2.power_state]
type=PowerState
clk_gate_bins=20
clk_gate_max=1000000000000
clk_gate_min=1000
default_state=UNDEFINED
eventq_index=0
leaders=
possible_states=

[system.ruby.l1_cntrl2.requestFromCache]
type=MessageBuffer
allow_zero_latency=false
buffer_size=0
eventq_index=0
ordered=true
randomization=ruby_system
out_port=system.ruby.network.in_port[4]

[system.ruby.l1_cntrl2.responseFromCache]
type=MessageBuffer
allow_zero_latency=false
buffer_size=0
eventq_index=0
ordered=true
randomization=ruby_system
out_port=system.ruby.network.in_port[5]

[system.ruby.l1_cntrl2.responseToCache]
type=MessageBuffer
allow_zero_latency=false
buffer_size=0
eventq_index=0
ordered=true
randomization=ruby_system
in_port=system.ruby.network.out_port[5]

[system.ruby.l1_cntrl2.sequencer]
type=RubySequencer
children=power_state
clk_domain=system.cpu_clk_domain
coreid=99
dcache=system.ruby.l1_cntrl2.cacheMemory
deadlock_threshold=500000
eventq_index=0
garnet_standalone=false
is_cpu_sequencer=true
max_outstanding_requests=16
no_retry_on_stall=false
power_model=
power_state=system.ruby.l1_cntrl2.sequencer.power_state
ruby_system=system.ruby
support_data_reqs=true
support_inst_reqs=true
system=system
using_ruby_tester=false
version=2
in_ports=system.cpu2.icache_port system.cpu2.dcache_port system.cpu2.mmu.itb.walker.port system.cpu2.mmu.dtb.walker.port system.cpu2.interrupts.int_requestor
interrupt_out_port=system.cpu2.interrupts.pio system.cpu2.interrupts.int_responder

[system.ruby.l1_cntrl2.sequencer.power_state]
type=PowerState
clk_gate_bins=20
clk_gate_max=1000000000000
clk_gate_min=1000
default_state=UNDEFINED
eventq_index=0
leaders=
possible_states=

[system.ruby.l1_cntrl3]
type=L1Cache_Controller
children=cacheMemory forwardToCache mandatoryQueue power_state requestFromCache responseFromCache responseToCache sequencer
addr_ranges=0:18446744073709551615
buffer_size=0
cacheMemory=system.ruby.l1_cntrl3.cacheMemory
cache_response_latency=12
clk_domain=system.cpu_clk_domain
cluster_id=0
downstream_destinations=
eventq_index=0
forwardToCache=system.ruby.l1_cntrl3.forwardToCache
issue_latency=2
mandatoryQueue=system.ruby.l1_cntrl3.mandatoryQueue
mandatory_queue_latency=1
number_of_TBEs=256
power_model=
power_state=system.ruby.l1_cntrl3.power_state